Circuit: * C:\Users\Mariano\Desktop\maestria-repo\Gestion de energía\TP5\TP5.asc

Direct Newton iteration for .op point succeeded.
Ignoring empty pin current: Ix(u1:5)
Ignoring empty pin current: Ix(u1:5)

Date: Mon May 12 13:45:17 2025
Total elapsed time: 0.063 seconds.

tnom = 27
temp = 27
method = trap
totiter = 4
traniter = 0
tranpoints = 0
accept = 0
rejected = 0
matrix size = 10
fillins = 0
solver = Normal
Avg thread counts: 12.0/0.0/12.0/1.6
Matrix Compiler1:      18 opcodes
Matrix Compiler2: 618 bytes object code size
