Circuit: * C:\Users\Mariano\Desktop\maestria-repo\Gestion de energía\TP6\TP6 - temp.asc

Per .tran options, skipping operating point for transient analysis.
Ignoring empty pin current: Ix(u1:5)

Date: Tue May 13 15:07:15 2025
Total elapsed time: 0.882 seconds.

tnom = 27
temp = 27
method = modified trap
totiter = 61663
traniter = 61663
tranpoints = 30761
accept = 30561
rejected = 200
matrix size = 23
fillins = 12
solver = Normal
Avg thread counts: 1.0/1.0/1.0/1.0
Matrix Compiler1: 1.34 KB object code size  0.5/0.3/[0.3]
Matrix Compiler2: 1.83 KB object code size  0.3/0.4/[0.2]

