Circuit: * C:\Users\Mariano\Desktop\maestria-repo\Gestion de energía\TP5\TP6 - temp.asc

Per .tran options, skipping operating point for transient analysis.
Ignoring empty pin current: Ix(u1:5)

Date: Mon May 12 15:51:10 2025
Total elapsed time: 0.837 seconds.

tnom = 27
temp = 27
method = modified trap
totiter = 151551
traniter = 151551
tranpoints = 75758
accept = 75595
rejected = 163
matrix size = 22
fillins = 11
solver = Normal
Avg thread counts: 1.0/1.0/1.0/1.0
Matrix Compiler1: 1.28 KB object code size  0.6/0.3/[0.3]
Matrix Compiler2: 1.72 KB object code size  0.4/0.4/[0.2]

