Circuit: * C:\Users\Mariano\Desktop\maestria-repo\Gestion de energía\TP5\TP6 - temp.asc

Fatal Error: ac: Missing node(s).
