Circuit: * C:\Users\Mariano\Desktop\maestria-repo\Gestion de energía\TP5\TP6.asc

Direct Newton iteration for .op point succeeded.
Ignoring empty pin current: Ix(u1:5)
Ignoring empty pin current: Ix(u1:5)

Date: Thu May  8 14:18:13 2025
Total elapsed time: 0.165 seconds.

tnom = 27
temp = 27
method = trap
totiter = 28
traniter = 0
tranpoints = 0
accept = 0
rejected = 0
matrix size = 22
fillins = 15
solver = Normal
Avg thread counts: 12.0/0.0/12.0/1.6
Matrix Compiler1:      78 opcodes
Matrix Compiler2: 1.86 KB object code size
